<?xml version="1.0" encoding="UTF-8"?>

<!-- generated on 2023-10-20 13:38:55 by Eclipse SUMO polyconvert Version 1.18.0
<configuration xmlns:xsi="http://www.w3.org/2001/XMLSchema-instance" xsi:noNamespaceSchemaLocation="http://sumo.dlr.de/xsd/polyconvertConfiguration.xsd">

    <input>
        <net-file value="osm.net.xml.gz"/>
        <osm-files value="osm_bbox.osm.xml.gz"/>
        <osm.keep-full-type value="true"/>
        <type-file value="${SUMO_HOME}/data/typemap/osmPolyconvert.typ.xml"/>
    </input>

    <output>
        <output-file value="osm.poly.xml.gz"/>
    </output>

    <report>
        <verbose value="true"/>
    </report>

</configuration>
-->

<additional xmlns:xsi="http://www.w3.org/2001/XMLSchema-instance" xsi:noNamespaceSchemaLocation="http://sumo.dlr.de/xsd/additional_file.xsd">
    <location netOffset="-779318.92,-1434869.69" convBoundary="-19.77,-451.04,4298.67,2980.26" origBoundary="77.574631,12.962492,77.614321,12.993669" projParameter="+proj=utm +zone=43 +ellps=WGS84 +datum=WGS84 +units=m +no_defs"/>

    <poly id="1007646159" type="amenity.parking" color="184,184,179" fill="1" layer="-1.00" shape="1011.689498,840.672320 1010.193334,842.616537 1042.673405,864.255272 1044.983740,861.245525 1037.504904,852.557332 1020.724065,841.538759 1011.689498,840.672320"/>
    <poly id="1007646160" type="landuse.recreation_ground" color="194,194,130" fill="1" layer="-3.00" shape="990.686875,823.090807 1013.200355,837.278091 1022.234924,838.144531 1039.015764,849.163104 1046.494600,857.851297 1067.195481,869.850562 1082.399153,849.027130 1122.925995,872.585139 1109.593492,895.165500 1156.370211,921.189107 1144.815326,868.013752 1146.339110,825.863809 1077.555864,787.030708 1025.251986,758.958706 990.686875,823.090807"/>
    <poly id="1007646163" type="building.yes" color="255,230,230" fill="1" layer="-1.00" shape="893.904556,762.853152 911.772112,774.845717 918.704112,764.643044 900.825695,752.650366 893.904556,762.853152"/>
    <poly id="1007646164" type="building.yes" color="255,230,230" fill="1" layer="-1.00" shape="1080.786158,873.209653 1102.975250,887.260902 1106.858000,881.211794 1111.093953,874.590631 1091.407450,862.125603 1088.904852,860.539377 1080.786158,873.209653"/>
    <poly id="1007646165" type="building.yes" color="255,230,230" fill="1" layer="-1.00" shape="1062.196518,900.341838 1057.099066,908.415506 1076.690314,920.636009 1080.132787,915.180214 1081.798738,912.551385 1062.196518,900.341838"/>
    <poly id="1007646166" type="landuse.commercial" color="209,209,204" fill="1" layer="-3.00" shape="1214.571480,630.982925 1294.755167,644.039330 1309.879637,551.836139 1214.571480,630.982925"/>
    <poly id="1007646167" type="amenity.arts_centre" color="237,199,199" fill="1" layer="-1.00" shape="1294.755167,644.039330 1214.571480,630.982925 1188.448014,652.680848 1290.946605,666.317720 1292.776212,656.118714 1294.755167,644.039330"/>
    <poly id="1007646167#1" type="landuse.commercial" color="209,209,204" fill="1" layer="-3.00" shape="1294.755167,644.039330 1214.571480,630.982925 1188.448014,652.680848 1290.946605,666.317720 1292.776212,656.118714 1294.755167,644.039330"/>
    <poly id="1035562485" type="landuse.commercial" color="209,209,204" fill="1" layer="-3.00" shape="2304.787940,486.335280 2312.425425,517.818675 2333.507068,511.601546 2365.162178,502.270675 2358.171677,471.225571 2304.787940,486.335280"/>
    <poly id="1047676496" type="building.school" color="255,230,230" fill="1" layer="-1.00" shape="2176.776374,493.944218 2151.662417,497.408295 2143.149782,436.669103 2168.263902,433.193940 2176.776374,493.944218"/>
    <poly id="1064628341" type="landuse.recreation_ground" color="194,194,130" fill="1" layer="-3.00" shape="1259.579223,735.142508 1250.490599,807.049266 1273.466324,809.905847 1281.716715,737.160337 1259.579223,735.142508"/>
    <poly id="1066006344" type="amenity.fuel" color="237,199,199" fill="1" layer="-1.00" shape="2414.581828,553.419176 2444.206962,547.266974 2441.191854,513.915456 2410.783780,514.856780 2414.581828,553.419176"/>
    <poly id="1066895468" type="landuse.commercial" color="209,209,204" fill="1" layer="-3.00" shape="2397.702607,909.281876 2377.652220,894.210649 2379.146317,891.414073 2401.160126,850.136656 2421.150560,863.635339 2417.650611,870.440982 2397.702607,909.281876"/>
    <poly id="107240640" type="tourism.hotel" color="207,245,201" fill="1" layer="-2.00" shape="2185.306195,711.988591 2125.468838,629.439624 2126.355580,619.109250 2133.658213,608.810923 2226.116011,568.991673 2263.416173,662.104808 2247.903346,696.131184 2232.114590,692.195643 2185.306195,711.988591"/>
    <poly id="107240643" type="building.yes" color="255,230,230" fill="1" layer="-1.00" shape="2187.463377,661.088446 2186.885654,658.115803 2186.100282,654.211166 2185.345899,650.461825 2184.395398,645.714187 2183.992869,643.662138 2175.383901,599.881194 2203.285954,594.475059 2206.124687,608.906036 2229.240444,604.425394 2240.016108,659.320584 2243.786221,679.307131 2217.093913,684.260578 2215.188490,674.134261 2190.780325,678.668173 2187.463377,661.088446"/>
    <poly id="107240643#1" type="tourism.hotel" color="207,245,201" fill="1" layer="-2.00" shape="2187.463377,661.088446 2186.885654,658.115803 2186.100282,654.211166 2185.345899,650.461825 2184.395398,645.714187 2183.992869,643.662138 2175.383901,599.881194 2203.285954,594.475059 2206.124687,608.906036 2229.240444,604.425394 2240.016108,659.320584 2243.786221,679.307131 2217.093913,684.260578 2215.188490,674.134261 2190.780325,678.668173 2187.463377,661.088446"/>
    <poly id="1076398554" type="amenity.fire_station" color="237,199,199" fill="1" layer="-1.00" shape="620.662897,1518.873294 536.174009,1521.715457 498.199221,1529.257208 498.629062,1553.294290 621.006644,1554.621482 620.662897,1518.873294"/>
    <poly id="1076398555" type="amenity.police" color="237,199,199" fill="1" layer="-1.00" shape="1504.328488,263.155831 1373.563883,243.552904 1371.836420,257.594223 1355.275661,391.848678 1354.186930,400.715736 1507.855127,373.536992 1504.328488,263.155831"/>
    <poly id="1081215245" type="amenity.police" color="237,199,199" fill="1" layer="-1.00" shape="779.311381,1437.621505 840.810247,1557.733158 621.006644,1554.621482 620.662897,1518.873294 645.573496,1514.985340 691.341308,1495.821798 779.311381,1437.621505"/>
    <poly id="1081215245#1" type="landuse.commercial" color="209,209,204" fill="1" layer="-3.00" shape="779.311381,1437.621505 840.810247,1557.733158 621.006644,1554.621482 620.662897,1518.873294 645.573496,1514.985340 691.341308,1495.821798 779.311381,1437.621505"/>
    <poly id="1092180883" type="landuse.retail" color="194,194,130" fill="1" layer="-3.00" shape="2540.170075,509.797970 2533.218723,535.686429 2569.547143,582.362484 2608.371206,548.175160 2593.172819,526.776894 2579.865233,526.519559 2573.188054,502.042080 2540.170075,509.797970"/>
    <poly id="1093504020" type="landuse.residential" color="235,235,227" fill="1" layer="-3.00" shape="2635.284299,902.990068 2566.941879,982.994321 2621.356674,1020.046826 2623.540994,1016.637370 2652.486970,971.633716 2672.224003,942.875615 2657.985969,897.586783 2651.369109,899.168781 2635.284299,902.990068"/>
    <poly id="1093504024" type="landuse.residential" color="235,235,227" fill="1" layer="-3.00" shape="2489.306671,865.846092 2506.891512,822.409231 2447.890823,790.004061 2445.784723,792.130201 2423.661042,813.270081 2419.443509,820.179118 2489.306671,865.846092"/>
    <poly id="1110812991" type="building.train_station" color="255,230,230" fill="1" layer="-1.00" shape="1931.633633,1474.323950 1917.004226,1487.735923 1921.159027,1493.379600 1926.501933,1497.485561 1937.366185,1500.961338 1943.243149,1495.253639 1941.041012,1484.415844 1937.461128,1479.885012 1931.633633,1474.323950"/>
    <poly id="1110812992" type="building.train_station" color="255,230,230" fill="1" layer="-1.00" shape="1928.326241,1402.434908 1921.225953,1408.871864 1933.445087,1422.169436 1940.534408,1415.743442 1928.326241,1402.434908"/>
    <poly id="1110812993" type="building.train_station" color="255,230,230" fill="1" layer="-1.00" shape="1904.652909,1376.412130 1897.498910,1382.793196 1909.608390,1396.200337 1916.751422,1389.830233 1904.652909,1376.412130"/>
    <poly id="1110812994" type="building.train_station" color="255,230,230" fill="1" layer="-1.00" shape="1688.402621,1220.938989 1680.686829,1228.122509 1682.315741,1235.555947 1685.724439,1240.915240 1691.535216,1247.062769 1706.831817,1233.159305 1700.016684,1226.492350 1695.436423,1223.180168 1688.402621,1220.938989"/>
    <poly id="1113115280" type="building.commercial" color="255,230,230" fill="1" layer="-1.00" shape="2346.381529,1721.831483 2352.588611,1719.957459 2360.316703,1704.117468 2342.106210,1692.861913 2325.600310,1682.653249 2319.729277,1684.574984 2330.947548,1694.851551 2345.184427,1717.856213 2346.381529,1721.831483"/>
    <poly id="1113115281" type="building.commercial" color="255,230,230" fill="1" layer="-1.00" shape="2355.421637,1751.967673 2346.381529,1721.831483 2345.184427,1717.856213 2330.947548,1694.851551 2319.729277,1684.574984 2293.091228,1692.816522 2301.208493,1718.703456 2315.518967,1764.324941 2355.421637,1751.967673"/>
    <poly id="1119219526" type="landuse.commercial" color="209,209,204" fill="1" layer="-3.00" shape="2583.032057,652.595422 2587.023119,689.233675 2548.941862,693.151968 2545.124551,656.504430 2583.032057,652.595422"/>
    <poly id="1119219529" type="landuse.residential" color="235,235,227" fill="1" layer="-3.00" shape="2602.066188,393.384812 2598.338352,333.026133 2564.754711,338.739384 2488.175765,354.332133 2493.236809,394.667549 2510.824201,393.640008 2512.843537,424.557064 2547.980409,418.759962 2563.811646,408.947092 2582.603175,421.869055 2589.047437,411.661691 2587.526964,395.727471 2602.066188,393.384812"/>
    <poly id="1119219530" type="natural.scrub" color="140,196,107" fill="1" layer="-4.00" shape="2477.189969,394.736624 2439.187768,399.386574 2443.982619,438.147314 2481.995625,433.497492 2477.189969,394.736624"/>
    <poly id="1123304173" type="landuse.construction" color="194,194,130" fill="1" layer="-3.00" shape="2504.104778,654.736067 2465.623662,658.473288 2462.208469,626.036497 2501.277367,621.087543 2504.104778,654.736067"/>
    <poly id="1123304174" type="landuse.residential" color="235,235,227" fill="1" layer="-3.00" shape="2462.208469,626.036497 2460.910959,613.790888 2451.049071,520.370024 2453.153052,515.254949 2484.286798,515.549835 2493.082155,523.930865 2501.277367,621.087543 2462.208469,626.036497"/>
    <poly id="1124083552" type="landuse.construction" color="194,194,130" fill="1" layer="-3.00" shape="2522.449962,767.948102 2561.370028,772.263388 2555.276034,734.242100 2524.776685,738.835438 2522.449962,767.948102"/>
    <poly id="1124083554" type="landuse.construction" color="194,194,130" fill="1" layer="-3.00" shape="2430.390779,933.858152 2458.025978,954.630266 2466.601974,961.082894 2490.509608,912.950322 2473.571599,902.482647 2451.824069,890.958627 2430.390779,933.858152"/>
    <poly id="1124083555" type="landuse.commercial" color="209,209,204" fill="1" layer="-3.00" shape="2648.730924,1031.251985 2623.540994,1016.637370 2621.356674,1020.046826 2566.941879,982.994321 2507.090963,939.244545 2488.063602,977.220236 2490.121404,978.768865 2492.362393,980.452201 2629.449068,1083.527531 2653.921174,1049.271599 2641.382336,1040.719474 2648.730924,1031.251985"/>
    <poly id="1124083556" type="landuse.commercial" color="209,209,204" fill="1" layer="-3.00" shape="2466.601974,961.082894 2488.063602,977.220236 2507.090963,939.244545 2513.205356,924.107657 2490.509608,912.950322 2466.601974,961.082894"/>
    <poly id="1124083557" type="landuse.commercial" color="209,209,204" fill="1" layer="-3.00" shape="2451.824069,890.958627 2417.650611,870.440982 2397.702607,909.281876 2430.390779,933.858152 2451.824069,890.958627"/>
    <poly id="1124083558" type="building.yes" color="255,230,230" fill="1" layer="-1.00" shape="2397.077863,902.401020 2381.978952,893.634783 2385.967153,886.856249 2399.843217,863.252312 2414.942030,872.029625 2397.077863,902.401020"/>
    <poly id="1124083558#1" type="tourism.museum" color="207,245,201" fill="1" layer="-2.00" shape="2397.077863,902.401020 2381.978952,893.634783 2385.967153,886.856249 2399.843217,863.252312 2414.942030,872.029625 2397.077863,902.401020"/>
    <poly id="1124083561" type="landuse.residential" color="235,235,227" fill="1" layer="-3.00" shape="579.380801,1494.931880 643.702059,1484.302764 665.336479,1474.824563 666.044965,1419.858595 693.830910,1407.553439 725.874115,1377.933800 713.012299,1354.080753 554.932173,1365.210946 556.151733,1410.975160 564.221805,1410.580827 564.796468,1440.685687 579.191060,1470.775445 579.380801,1494.931880"/>
    <poly id="1124838069" type="building.yes" color="255,230,230" fill="1" layer="-1.00" shape="596.543231,1680.559616 608.465464,1681.399859 610.208515,1657.207633 598.286272,1656.367391 596.543231,1680.559616"/>
    <poly id="1124838070" type="building.yes" color="255,230,230" fill="1" layer="-1.00" shape="609.668115,1681.633433 621.590348,1682.473681 623.333411,1658.281454 611.422022,1657.441316 609.668115,1681.633433"/>
    <poly id="1124838071" type="building.yes" color="255,230,230" fill="1" layer="-1.00" shape="593.358913,1707.715053 605.281021,1708.566365 607.024073,1684.374140 595.101842,1683.533897 593.358913,1707.715053"/>
    <poly id="1124838072" type="building.yes" color="255,230,230" fill="1" layer="-1.00" shape="606.483671,1708.799939 618.405892,1709.640189 620.148955,1685.447961 608.226724,1684.607713 606.483671,1708.799939"/>
    <poly id="1125334900" type="leisure.park" color="207,245,201" fill="1" layer="-2.00" shape="2463.239735,767.832102 2461.365612,761.038149 2400.331126,784.416467 2420.165833,802.551900 2432.826724,789.540691 2463.239735,767.832102"/>
    <poly id="1125334901" type="building.yes" color="255,230,230" fill="1" layer="-1.00" shape="2418.798754,731.036594 2416.519585,724.570624 2418.208370,723.978968 2413.481414,710.547160 2423.079962,707.213183 2427.743360,720.489366 2429.922330,719.736651 2432.254195,726.358140 2418.798754,731.036594"/>
    <poly id="1125334902" type="building.apartments" color="255,230,230" fill="1" layer="-1.00" shape="2388.332385,706.804038 2403.378466,701.577192 2407.293006,712.698157 2413.481414,710.547160 2418.208370,723.978968 2416.519585,724.570624 2412.270540,726.043955 2416.279951,737.442640 2400.983196,742.766554 2388.332385,706.804038"/>
    <poly id="1125334903" type="building.apartments" color="255,230,230" fill="1" layer="-1.00" shape="2452.945415,724.354838 2437.844828,729.603242 2433.898978,718.360180 2429.922330,719.736651 2427.743360,720.489366 2423.079962,707.213183 2429.061332,705.137572 2425.041400,693.705568 2440.294541,688.403356 2452.945415,724.354838"/>
    <poly id="1125334907" type="leisure.park" color="207,245,201" fill="1" layer="-2.00" shape="2344.154364,701.749153 2390.969854,682.343970 2377.796988,648.601232 2331.725526,668.501101 2344.154364,701.749153"/>
    <poly id="1125334908" type="leisure.park" color="207,245,201" fill="1" layer="-2.00" shape="2465.623662,658.473288 2432.134878,670.907095 2416.343568,632.034381 2413.323595,618.354276 2420.593658,617.664464 2460.910959,613.790888 2462.208469,626.036497 2465.623662,658.473288"/>
    <poly id="1125334909" type="building.yes" color="255,230,230" fill="1" layer="-1.00" shape="2379.641947,584.679492 2374.517642,572.948441 2359.916617,579.242569 2365.030183,590.962438 2379.641947,584.679492"/>
    <poly id="1125334910" type="building.commercial" color="255,230,230" fill="1" layer="-1.00" shape="2359.916617,579.242569 2374.517642,572.948441 2369.361667,561.128509 2389.896357,552.116210 2380.525300,530.965607 2352.902438,543.060726 2349.272792,534.876237 2311.238044,551.282358 2314.920736,559.589150 2324.302117,580.795178 2354.792191,567.522593 2359.916617,579.242569"/>
    <poly id="1125334913" type="building.yes" color="255,230,230" fill="1" layer="-1.00" shape="2324.302117,580.795178 2314.920736,559.589150 2291.497114,569.778732 2293.791538,574.750384 2296.425900,580.456118 2300.845827,590.995487 2324.302117,580.795178"/>
    <poly id="1126169749" type="landuse.commercial" color="209,209,204" fill="1" layer="-3.00" shape="2251.798873,728.329249 2228.686889,765.521811 2267.794589,798.332835 2295.172118,752.715142 2251.798873,728.329249"/>
    <poly id="1137994211" type="natural.wetland" color="181,209,209" fill="1" layer="-4.00" shape="2358.092113,1232.931743 2339.218935,1262.196914 2338.924845,1280.415200 2358.218451,1284.486200 2369.619929,1297.045044 2381.184467,1291.461759 2387.203325,1272.903254 2376.054408,1258.996431 2374.650503,1238.015477 2358.092113,1232.931743"/>
    <poly id="1156298790" type="tourism.attraction" color="207,245,201" fill="1" layer="-2.00" shape="2224.073187,927.650719 2183.434313,887.429373 2155.838732,859.539970 2224.224409,793.306441 2297.721693,857.408225 2224.073187,927.650719"/>
    <poly id="1157218021" type="landuse.residential" color="235,235,227" fill="1" layer="-3.00" shape="2526.607798,1628.819826 2549.822171,1706.181552 2594.630529,1692.911506 2591.270679,1681.718627 2571.416254,1615.549721 2526.607798,1628.819826"/>
    <poly id="115837331" type="landuse.commercial" color="209,209,204" fill="1" layer="-3.00" shape="2196.644913,1863.453057 2181.310174,1822.459573 2141.945047,1715.919384 2154.059399,1711.758607 2255.516432,1842.222486 2196.644913,1863.453057"/>
    <poly id="1183629081" type="building.hotel" color="255,230,230" fill="1" layer="-1.00" shape="1231.165004,1527.506820 1201.513104,1480.800786 1218.252643,1468.018758 1248.884255,1515.531790 1231.165004,1527.506820"/>
    <poly id="1183629082" type="building.hotel" color="255,230,230" fill="1" layer="-1.00" shape="1267.035478,1448.144970 1276.144206,1463.082197 1242.699398,1486.332929 1231.863969,1470.381902 1267.035478,1448.144970"/>
    <poly id="1184849329" type="landuse.commercial" color="209,209,204" fill="1" layer="-3.00" shape="2244.065782,1586.122417 2300.348443,1635.802255 2293.831771,1638.226643 2282.728564,1642.231616 2174.346644,1681.112975 2165.998850,1672.526210 2131.780348,1637.329442 2166.221510,1615.462491 2177.109517,1604.868615 2190.820721,1554.761345 2197.288683,1546.458250 2244.065782,1586.122417"/>
    <poly id="1184849335" type="leisure.park" color="207,245,201" fill="1" layer="-2.00" shape="2268.551987,1549.331424 2243.910554,1528.866631 2258.822906,1511.140371 2283.464236,1531.616244 2268.551987,1549.331424"/>
    <poly id="1184849337" type="building.yes" color="255,230,230" fill="1" layer="-1.00" shape="2279.332077,1549.341571 2277.534677,1539.282745 2282.113451,1538.465910 2287.910248,1537.440079 2289.718387,1547.510085 2279.332077,1549.341571"/>
    <poly id="1188468895" type="building.yes" color="255,230,230" fill="1" layer="-1.00" shape="2512.143752,890.842418 2494.709300,883.281097 2498.732743,874.111802 2516.167314,881.662056 2512.143752,890.842418"/>
    <poly id="1188468896" type="building.yes" color="255,230,230" fill="1" layer="-1.00" shape="2466.012569,586.167734 2495.590392,582.528010 2493.733862,567.608823 2464.145281,571.237373 2466.012569,586.167734"/>
    <poly id="1188468897" type="building.yes" color="255,230,230" fill="1" layer="-1.00" shape="2470.425522,610.179313 2498.383154,606.788779 2496.006674,587.491629 2468.049024,590.882169 2470.425522,610.179313"/>
    <poly id="1188468898" type="building.yes" color="255,230,230" fill="1" layer="-1.00" shape="2514.719405,731.781003 2521.883487,730.835532 2520.662663,721.723518 2513.498579,722.668989 2514.719405,731.781003"/>
    <poly id="1188468899" type="building.yes" color="255,230,230" fill="1" layer="-1.00" shape="2530.071247,729.579460 2541.733189,728.314501 2541.017450,721.842301 2550.494866,720.809703 2549.232259,709.405759 2528.103746,711.703431 2530.071247,729.579460"/>
    <poly id="1188468900" type="building.yes" color="255,230,230" fill="1" layer="-1.00" shape="2488.706961,758.449472 2501.208552,755.753945 2496.696157,735.117699 2484.194445,737.824298 2488.706961,758.449472"/>
    <poly id="1188468905" type="landuse.residential" color="235,235,227" fill="1" layer="-3.00" shape="2513.205356,924.107657 2529.945827,870.843074 2559.516082,881.771588 2632.177629,870.135685 2634.745352,897.283495 2635.284299,902.990068 2566.941879,982.994321 2507.090963,939.244545 2513.205356,924.107657"/>
    <poly id="1188468906" type="landuse.residential" color="235,235,227" fill="1" layer="-3.00" shape="2575.408756,839.269534 2559.516082,881.771588 2529.945827,870.843074 2527.696147,870.012042 2543.588771,827.509978 2575.408756,839.269534"/>
    <poly id="1188468909" type="building.yes" color="255,230,230" fill="1" layer="-1.00" shape="2620.376949,874.365956 2624.044803,896.897691 2570.815424,905.432718 2567.158386,882.901109 2620.376949,874.365956"/>
    <poly id="1188468914" type="building.yes" color="255,230,230" fill="1" layer="-1.00" shape="2534.925950,818.919927 2505.171052,818.650030 2505.342000,798.670337 2519.638753,798.793829 2519.551993,809.442331 2526.608096,809.503141 2526.657905,803.547962 2535.060076,803.622486 2534.925950,818.919927"/>
    <poly id="1188485465" type="natural.scrub" color="140,196,107" fill="1" layer="-4.00" shape="2324.113369,476.668558 2317.767294,452.703781 2346.722787,445.149819 2353.058098,469.103427 2324.113369,476.668558"/>
    <poly id="1207525563" type="building.yes" color="255,230,230" fill="1" layer="-1.00" shape="2561.603683,525.525424 2576.055849,522.130224 2572.317823,506.472306 2557.876506,509.867620 2561.603683,525.525424"/>
    <poly id="1207525564" type="building.yes" color="255,230,230" fill="1" layer="-1.00" shape="2543.933596,522.954309 2555.950167,523.120987 2556.096608,511.941729 2544.090775,511.786232 2543.933596,522.954309"/>
    <poly id="150797673" type="leisure.track" color="207,245,201" fill="1" layer="-2.00" shape="433.634220,1855.840873 400.481229,1851.453838 354.566376,1842.310531 304.100144,1822.704517 278.705119,1800.462908 258.072207,1767.841665 245.696427,1724.898258 247.191300,1691.936225 259.271576,1649.229035 279.369254,1619.919972 308.118191,1598.225915 344.901324,1589.343495 377.562180,1584.459929 887.372352,1588.757930 930.689217,1596.137759 969.256318,1611.572701 1001.978657,1629.560956 1026.431744,1659.022426 1036.682923,1682.273600 1043.609578,1716.483517 1038.638896,1747.395725 1027.322541,1772.454011 1017.589823,1784.797930 1003.180767,1797.957892 991.160367,1806.802662 960.491329,1815.458375 433.634220,1855.840873"/>
    <poly id="169825867" type="landuse.commercial" color="209,209,204" fill="1" layer="-3.00" shape="810.444785,617.689624 870.027989,571.278967 901.440617,546.136248 879.041996,516.286353 848.438974,546.175219 789.287907,588.505503 800.107103,605.053836 810.444785,617.689624"/>
    <poly id="173470562" type="landuse.residential" color="235,235,227" fill="1" layer="-3.00" shape="2579.865233,526.519559 2593.172819,526.776894 2608.371206,548.175160 2569.547143,582.362484 2588.509816,606.179151 2624.100200,593.146992 2664.899353,589.942812 2668.154700,628.455508 2613.488434,639.444538 2663.584682,706.165027 2675.826817,689.518651 2707.168714,685.354714 2702.103692,653.974814 2754.484715,643.516165 2758.847510,676.682277 2809.944783,672.874832 2808.158823,643.598427 2807.898321,639.333794 2778.512190,641.203925 2774.595916,580.212211 2791.288959,576.386094 2784.180871,544.144014 2780.087470,545.253572 2770.885750,509.646998 2785.776367,505.846777 2785.065250,502.119985 2784.260721,497.971579 2774.910775,449.212258 2573.188054,502.042080 2579.865233,526.519559"/>
    <poly id="191031663" type="building.yes" color="255,230,230" fill="1" layer="-1.00" shape="800.172989,1118.576524 812.715234,1086.091580 827.130981,1091.584341 814.577752,1124.080241 800.172989,1118.576524"/>
    <poly id="208686727" type="amenity.courthouse" color="237,199,199" fill="1" layer="-1.00" shape="1765.586438,1242.723035 1786.944309,1228.482687 1772.321581,1210.256780 1804.027613,1182.992593 1805.450496,1171.173232 1800.331471,1164.257809 1860.188813,1110.213649 1899.545493,1099.289132 1996.226184,1202.337679 2084.231002,1298.014371 2091.334171,1319.042187 2076.638797,1332.519855 2072.638834,1336.198683 1947.344022,1445.358546 1765.586438,1242.723035"/>
    <poly id="208686727#1" type="landuse.commercial" color="209,209,204" fill="1" layer="-3.00" shape="1765.586438,1242.723035 1786.944309,1228.482687 1772.321581,1210.256780 1804.027613,1182.992593 1805.450496,1171.173232 1800.331471,1164.257809 1860.188813,1110.213649 1899.545493,1099.289132 1996.226184,1202.337679 2084.231002,1298.014371 2091.334171,1319.042187 2076.638797,1332.519855 2072.638834,1336.198683 1947.344022,1445.358546 1765.586438,1242.723035"/>
    <poly id="208686729" type="landuse.commercial" color="209,209,204" fill="1" layer="-3.00" shape="2239.569614,1483.933456 2154.852520,1410.938759 2072.638834,1336.198683 1947.344022,1445.358546 2006.285053,1501.651312 2068.323473,1566.123306 2073.830269,1572.256784 2079.936680,1578.141754 2122.293036,1530.573210 2166.441352,1537.343556 2175.637766,1541.488801 2239.569614,1483.933456"/>
    <poly id="208686730" type="landuse.residential" color="235,235,227" fill="1" layer="-3.00" shape="1671.776243,1746.063001 1625.203419,1771.737023 1600.433150,1767.145899 1533.848136,1654.341655 1521.535570,1664.135292 1584.922722,1775.412564 1580.318729,1803.295347 1522.426104,1834.035245 1511.482350,1899.314422 1490.805631,1910.683582 1479.459848,1959.973629 1488.071166,1972.548031 1522.728885,1981.623248 1740.094141,1876.276319 1671.776243,1746.063001"/>
    <poly id="208686730#1" type="tourism.guest_house" color="207,245,201" fill="1" layer="-2.00" shape="1671.776243,1746.063001 1625.203419,1771.737023 1600.433150,1767.145899 1533.848136,1654.341655 1521.535570,1664.135292 1584.922722,1775.412564 1580.318729,1803.295347 1522.426104,1834.035245 1511.482350,1899.314422 1490.805631,1910.683582 1479.459848,1959.973629 1488.071166,1972.548031 1522.728885,1981.623248 1740.094141,1876.276319 1671.776243,1746.063001"/>
    <poly id="208693753" type="landuse.commercial" color="209,209,204" fill="1" layer="-3.00" shape="1140.145304,1393.910282 1235.553515,1544.366598 1299.587994,1514.972491 1275.530328,1443.338242 1241.630184,1359.515808 1140.145304,1393.910282"/>
    <poly id="208697532" type="landuse.commercial" color="209,209,204" fill="1" layer="-3.00" shape="2493.236809,394.667549 2505.250157,507.095474 2769.687781,438.653527 2821.917019,427.152785 2808.845789,368.558500 2803.104771,342.784211 2801.451736,335.605028 2795.461260,305.544086 2789.942356,282.473166 2784.555647,250.691456 2779.149694,228.252688 2705.232687,265.967891 2712.320007,383.371668 2602.066188,393.384812 2587.526964,395.727471 2589.047437,411.661691 2582.603175,421.869055 2563.811646,408.947092 2547.980409,418.759962 2512.843537,424.557064 2510.824201,393.640008 2493.236809,394.667549"/>
    <poly id="208701341" type="landuse.residential" color="235,235,227" fill="1" layer="-3.00" shape="2522.449962,767.948102 2480.869503,762.620544 2465.623662,658.473288 2504.104778,654.736067 2504.748826,660.786871 2545.124551,656.504430 2548.941862,693.151968 2555.276034,734.242100 2524.776685,738.835438 2522.449962,767.948102"/>
    <poly id="208701342" type="landuse.residential" color="235,235,227" fill="1" layer="-3.00" shape="2566.941879,982.994321 2507.090963,939.244545 2513.205356,924.107657 2490.509608,912.950322 2473.571599,902.482647 2489.306671,865.846092 2506.891512,822.409231 2447.890823,790.004061 2473.931376,778.690004 2493.337299,771.769618 2577.645418,780.643184 2580.784968,787.903917 2571.747987,834.151081 2578.796503,838.152766 2629.061779,837.115160 2632.177629,870.135685 2634.745352,897.283495 2635.284299,902.990068 2566.941879,982.994321"/>
    <poly id="208701343" type="landuse.commercial" color="209,209,204" fill="1" layer="-3.00" shape="2451.824069,890.958627 2473.571599,902.482647 2489.306671,865.846092 2419.443509,820.179118 2401.160126,850.136656 2421.150560,863.635339 2417.650611,870.440982 2451.824069,890.958627"/>
    <poly id="208701345" type="landuse.commercial" color="209,209,204" fill="1" layer="-3.00" shape="2337.452973,856.672468 2395.576782,780.072883 2400.331126,784.416467 2420.165833,802.551900 2373.626975,885.435404 2368.010375,885.809948 2337.452973,856.672468"/>
    <poly id="208701347" type="landuse.commercial" color="209,209,204" fill="1" layer="-3.00" shape="2395.576782,780.072883 2337.452973,856.672468 2267.794589,798.332835 2295.172118,752.715142 2354.627993,729.763328 2374.307992,722.579967 2395.576782,780.072883"/>
    <poly id="208701348" type="landuse.commercial" color="209,209,204" fill="1" layer="-3.00" shape="2507.212548,540.403083 2510.629601,535.345663 2526.907766,547.732782 2597.976791,634.947036 2595.944430,638.358046 2521.276234,646.564148 2507.212548,540.403083"/>
    <poly id="208701349" type="landuse.religious" color="194,194,130" fill="1" layer="-3.00" shape="2228.686889,765.521811 2251.798873,728.329249 2239.438846,721.384336 2243.761345,710.557557 2200.048776,730.182719 2228.686889,765.521811"/>
    <poly id="208746626" type="landuse.residential" color="235,235,227" fill="1" layer="-3.00" shape="2443.982619,438.147314 2439.187768,399.386574 2477.189969,394.736624 2475.753497,376.943512 2459.297899,371.307368 2463.500775,350.914866 2421.166855,347.018961 2423.209139,318.102677 2449.499869,309.979231 2418.321035,270.363206 2381.532371,221.900536 2370.079108,197.308135 2241.017346,225.839771 2267.860736,334.134130 2278.113945,376.370963 2304.787940,486.335280 2358.171677,471.225571 2365.162178,502.270675 2390.440007,500.845342 2393.655370,500.667743 2450.552945,498.723045 2443.982619,438.147314"/>