<?xml version="1.0" encoding="UTF-8"?>

<!-- generated on 2023-10-20 13:38:57.176693 by OsmWebWizard.py v1_18_0+0000-03ecfdea036
<configuration>
    <net-file value="C:\Users\NAGATEJA\Sumo\2023-10-20-13-38-47\osm.net.xml.gz"/>
    <output-trip-file value="C:\Users\NAGATEJA\Sumo\2023-10-20-13-38-47\osm.passenger.trips.xml"/>
    <route-file value="C:\Users\NAGATEJA\Sumo\2023-10-20-13-38-47\osm.passenger.rou.xml"/>
    <prefix value="veh"/>
    <trip-attributes value="departLane=&quot;best&quot;"/>
    <fringe-start-attributes value="departSpeed=&quot;max&quot;"/>
    <vehicle-class value="passenger"/>
    <lanes value="True"/>
    <fringe-factor value="5"/>
    <allow-fringe.min-length value="1000.0"/>
    <via-edge-types value="highway.motorway,highway.motorway_link,highway.trunk_link,highway.primary_link,highway.secondary_link,highway.tertiary_link"/>
    <min-distance value="300.0"/>
    <min-distance.fringe value="10.0"/>
    <remove-loops value="True"/>
    <validate value="True"/>
    <insertion-density value="12.0"/>
</configuration>
-->

<!-- generated on 2023-10-20 13:38:57 by Eclipse SUMO duarouter Version 1.18.0
<configuration xmlns:xsi="http://www.w3.org/2001/XMLSchema-instance" xsi:noNamespaceSchemaLocation="http://sumo.dlr.de/xsd/duarouterConfiguration.xsd">

    <input>
        <net-file value="C:\Users\NAGATEJA\Sumo\2023-10-20-13-38-47\osm.net.xml.gz"/>
        <route-files value="C:\Users\NAGATEJA\Sumo\2023-10-20-13-38-47\osm.passenger.trips.xml"/>
    </input>

    <output>
        <output-file value="C:\Users\NAGATEJA\Sumo\2023-10-20-13-38-47\osm.passenger.trips.xml.tmp"/>
        <alternatives-output value="NUL"/>
        <write-trips value="true"/>
    </output>

    <processing>
        <remove-loops value="true"/>
    </processing>

    <time>
        <begin value="0.0"/>
        <end value="3600.0"/>
    </time>

    <report>
        <no-warnings value="true"/>
        <ignore-errors value="true"/>
        <no-step-log value="true"/>
    </report>

</configuration>
-->

<routes xmlns:xsi="http://www.w3.org/2001/XMLSchema-instance" xsi:noNamespaceSchemaLocation="http://sumo.dlr.de/xsd/routes_file.xsd">
    <vType id="veh_passenger" vClass="passenger"/>
    <trip id="veh0" type="veh_passenger" depart="0.00" departLane="best" from="36882311#0" to="-38542534"/>
    <trip id="veh1" type="veh_passenger" depart="5.68" departLane="best" from="1182221971" to="1148406432#1-AddedOffRampEdge"/>
    <trip id="veh2" type="veh_passenger" depart="11.37" departLane="best" from="38542543" to="36882310#2-AddedOnRampEdge"/>
    <trip id="veh3" type="veh_passenger" depart="17.05" departLane="best" from="154340361#1" to="548524980#1"/>
    <trip id="veh4" type="veh_passenger" depart="22.73" departLane="best" from="1148155463" to="36851759"/>
    <trip id="veh5" type="veh_passenger" depart="28.42" departLane="best" from="-548524980#1" to="1148155463"/>
    <trip id="veh6" type="veh_passenger" depart="34.10" departLane="best" from="36882311#1" to="36882310#2"/>
    <trip id="veh7" type="veh_passenger" depart="39.79" departLane="best" departSpeed="max" from="503401205" to="1136611795"/>
    <trip id="veh8" type="veh_passenger" depart="45.47" departLane="best" from="152051153" to="1109946345"/>
    <trip id="veh9" type="veh_passenger" depart="51.15" departLane="best" from="764332430" to="208686728"/>
    <trip id="veh10" type="veh_passenger" depart="56.84" departLane="best" departSpeed="max" from="107215088" to="1091198030"/>
    <trip id="veh11" type="veh_passenger" depart="62.52" departLane="best" from="508197004" to="36907507#0"/>
    <trip id="veh12" type="veh_passenger" depart="68.20" departLane="best" departSpeed="max" from="503401205" to="508197004-AddedOffRampEdge"/>
    <trip id="veh13" type="veh_passenger" depart="73.89" departLane="best" from="338941361#0" to="764332432#1"/>
    <trip id="veh14" type="veh_passenger" depart="79.57" departLane="best" departSpeed="max" from="154340361#0" to="36882310#2-AddedOnRampEdge"/>
    <trip id="veh15" type="veh_passenger" depart="85.25" departLane="best" departSpeed="max" from="503401205" to="36907507#0"/>
    <trip id="veh16" type="veh_passenger" depart="90.94" departLane="best" from="508197005" to="36882311#1"/>
    <trip id="veh17" type="veh_passenger" depart="96.62" departLane="best" from="369295564#1" to="-991536561"/>
    <trip id="veh18" type="veh_passenger" depart="102.30" departLane="best" from="1148155464-AddedOnRampEdge" to="150785556#1"/>
    <trip id="veh19" type="veh_passenger" depart="107.99" departLane="best" departSpeed="max" from="107215088" to="1148408386"/>
    <trip id="veh20" type="veh_passenger" depart="113.67" departLane="best" from="107215088-AddedOffRampEdge" to="150785556#0-AddedOffRampEdge"/>
    <trip id="veh21" type="veh_passenger" depart="119.36" departLane="best" from="36882311#0" to="338941361#0"/>
    <trip id="veh22" type="veh_passenger" depart="125.04" departLane="best" departSpeed="max" from="154340361#0" to="1148155464-AddedOnRampEdge"/>
    <trip id="veh23" type="veh_passenger" depart="130.72" departLane="best" from="1148718165" to="763048421#1"/>
    <trip id="veh24" type="veh_passenger" depart="136.41" departLane="best" from="36882311#0-AddedOnRampEdge" to="36907507#0"/>
    <trip id="veh25" type="veh_passenger" depart="142.09" departLane="best" departSpeed="max" from="1110178941" to="508197004-AddedOffRampEdge"/>
    <trip id="veh26" type="veh_passenger" depart="147.77" departLane="best" departSpeed="max" from="1110178941" to="763048421#0"/>
    <trip id="veh27" type="veh_passenger" depart="153.46" departLane="best" from="-988901293#0" to="369295564#1"/>
    <trip id="veh28" type="veh_passenger" depart="159.14" departLane="best" from="358318632" to="399001083"/>
    <trip id="veh30" type="veh_passenger" depart="170.51" departLane="best" from="1148155464-AddedOnRampEdge" to="-763048420"/>
    <trip id="veh31" type="veh_passenger" depart="176.19" departLane="best" departSpeed="max" from="150785560" to="1205171802#1"/>
    <trip id="veh32" type="veh_passenger" depart="181.87" departLane="best" from="-112657837#1" to="764332430"/>
    <trip id="veh34" type="veh_passenger" depart="193.24" departLane="best" from="36882311#1" to="358318632-AddedOffRampEdge"/>
    <trip id="veh35" type="veh_passenger" depart="198.93" departLane="best" from="553253481" to="363452629#0"/>
    <trip id="veh36" type="veh_passenger" depart="204.61" departLane="best" from="1148718165" to="-1182221971"/>
    <trip id="veh37" type="veh_passenger" depart="210.29" departLane="best" from="358318632-AddedOffRampEdge" to="1205171802#1"/>
    <trip id="veh38" type="veh_passenger" depart="215.98" departLane="best" from="362206700#0" to="730432812"/>
    <trip id="veh39" type="veh_passenger" depart="221.66" departLane="best" departSpeed="max" from="154340361#0" to="1148406432#1-AddedOffRampEdge"/>
    <trip id="veh40" type="veh_passenger" depart="227.34" departLane="best" from="208686728" to="36851759"/>
    <trip id="veh41" type="veh_passenger" depart="233.03" departLane="best" departSpeed="max" from="107215088" to="-991536561"/>
    <trip id="veh42" type="veh_passenger" depart="238.71" departLane="best" from="1091198028" to="36907507#0"/>
    <trip id="veh43" type="veh_passenger" depart="244.39" departLane="best" from="503401204" to="362206700#2"/>
    <trip id="veh44" type="veh_passenger" depart="250.08" departLane="best" from="107215083" to="763048421#0"/>
    <trip id="veh45" type="veh_passenger" depart="255.76" departLane="best" from="991536561" to="36851759"/>
    <trip id="veh46" type="veh_passenger" depart="261.44" departLane="best" from="764332432#0" to="638928391"/>
    <trip id="veh47" type="veh_passenger" depart="267.13" departLane="best" from="23515739#0" to="508197004-AddedOffRampEdge"/>
    <trip id="veh48" type="veh_passenger" depart="272.81" departLane="best" departSpeed="max" from="36913434" to="36882310#0"/>
    <trip id="veh49" type="veh_passenger" depart="278.50" departLane="best" from="1148718165" to="369295564#1"/>
    <trip id="veh50" type="veh_passenger" depart="284.18" departLane="best" from="1091198030" to="362206701#2"/>
    <trip id="veh51" type="veh_passenger" depart="289.86" departLane="best" departSpeed="max" from="23076927" to="764332430"/>
    <trip id="veh53" type="veh_passenger" depart="301.23" departLane="best" from="234946738#1" to="1109946346"/>
    <trip id="veh54" type="veh_passenger" depart="306.91" departLane="best" from="553253481" to="638928391"/>
    <trip id="veh55" type="veh_passenger" depart="312.60" departLane="best" from="150785556#0" to="369295564#1"/>
    <trip id="veh56" type="veh_passenger" depart="318.28" departLane="best" from="362900184" to="1109946344"/>
    <trip id="veh57" type="veh_passenger" depart="323.96" departLane="best" from="36882310#0" to="36851759"/>
    <trip id="veh58" type="veh_passenger" depart="329.65" departLane="best" from="-112657837#0" to="160558221#1"/>
    <trip id="veh60" type="veh_passenger" depart="341.01" departLane="best" from="52032727" to="638928391"/>
    <trip id="veh61" type="veh_passenger" depart="346.70" departLane="best" from="150785556#0-AddedOffRampEdge" to="1054230460"/>
    <trip id="veh62" type="veh_passenger" depart="352.38" departLane="best" departSpeed="max" from="107215088" to="363477540"/>
    <trip id="veh64" type="veh_passenger" depart="363.75" departLane="best" from="399001081" to="1106310175"/>
    <trip id="veh65" type="veh_passenger" depart="369.43" departLane="best" departSpeed="max" from="23076927" to="36882310#2-AddedOnRampEdge"/>
    <trip id="veh66" type="veh_passenger" depart="375.12" departLane="best" from="1148718165" to="730432812"/>
    <trip id="veh67" type="veh_passenger" depart="380.80" departLane="best" from="160558221#0" to="553253480"/>
    <trip id="veh68" type="veh_passenger" depart="386.48" departLane="best" from="763048421#1" to="508197004-AddedOffRampEdge"/>
    <trip id="veh70" type="veh_passenger" depart="397.85" departLane="best" from="-991536561" to="38542534"/>
    <trip id="veh71" type="veh_passenger" depart="403.53" departLane="best" departSpeed="max" from="23076927" to="36851759"/>
    <trip id="veh72" type="veh_passenger" depart="409.22" departLane="best" from="1109911786" to="1148408386"/>
    <trip id="veh74" type="veh_passenger" depart="420.58" departLane="best" from="1148155466" to="1148406432#1-AddedOffRampEdge"/>
    <trip id="veh75" type="veh_passenger" depart="426.27" departLane="best" departSpeed="max" from="107215088" to="36907507#0"/>
    <trip id="veh76" type="veh_passenger" depart="431.95" departLane="best" from="1148155464-AddedOnRampEdge" to="730432812"/>
    <trip id="veh77" type="veh_passenger" depart="437.64" departLane="best" from="508197004-AddedOffRampEdge" to="107215083"/>
    <trip id="veh78" type="veh_passenger" depart="443.32" departLane="best" departSpeed="max" from="1148406432#0" to="399001079"/>
    <trip id="veh79" type="veh_passenger" depart="449.00" departLane="best" from="1136611795" to="1106310175"/>
    <trip id="veh80" type="veh_passenger" depart="454.69" departLane="best" departSpeed="max" from="23076927" to="553253466"/>
    <trip id="veh81" type="veh_passenger" depart="460.37" departLane="best" departSpeed="max" from="503401205" to="112657837#1"/>
    <trip id="veh82" type="veh_passenger" depart="466.05" departLane="best" departSpeed="max" from="107215088" to="362206700#2"/>
    <trip id="veh83" type="veh_passenger" depart="471.74" departLane="best" from="160558221#0" to="363452629#0"/>
    <trip id="veh84" type="veh_passenger" depart="477.42" departLane="best" from="38540557#1" to="36882310#2-AddedOnRampEdge"/>
    <trip id="veh85" type="veh_passenger" depart="483.10" departLane="best" from="93688006" to="1091198030"/>
    <trip id="veh86" type="veh_passenger" depart="488.79" departLane="best" departSpeed="max" from="154340361#0" to="23076955"/>
    <trip id="veh87" type="veh_passenger" depart="494.47" departLane="best" from="508197005" to="1182221971"/>
    <trip id="veh88" type="veh_passenger" depart="500.15" departLane="best" from="1110191850" to="363449251"/>
    <trip id="veh89" type="veh_passenger" depart="505.84" departLane="best" from="154340361#1" to="150785556#0-AddedOffRampEdge"/>
    <trip id="veh90" type="veh_passenger" depart="511.52" departLane="best" from="1148406432#1-AddedOffRampEdge" to="760700372"/>
    <trip id="veh91" type="veh_passenger" depart="517.21" departLane="best" from="763048421#0" to="1047141876#1"/>
    <trip id="veh92" type="veh_passenger" depart="522.89" departLane="best" from="991536562#0" to="638928391"/>
    <trip id="veh93" type="veh_passenger" depart="528.57" departLane="best" from="764332432#0" to="760700372"/>
    <trip id="veh94" type="veh_passenger" depart="534.26" departLane="best" from="508197004" to="1109946345"/>
    <trip id="veh95" type="veh_passenger" depart="539.94" departLane="best" from="23076955" to="553253480"/>
    <trip id="veh96" type="veh_passenger" depart="545.62" departLane="best" departSpeed="max" from="154340361#0" to="1054230460"/>
    <trip id="veh97" type="veh_passenger" depart="551.31" departLane="best" departSpeed="max" from="154340361#0" to="988901292"/>
    <trip id="veh98" type="veh_passenger" depart="556.99" departLane="best" from="1148718165" to="553253466"/>
    <trip id="veh99" type="veh_passenger" depart="562.67" departLane="best" departSpeed="max" from="23076927" to="362206700#2"/>
    <trip id="veh100" type="veh_passenger" depart="568.36" departLane="best" from="764332430" to="991536561"/>
    <trip id="veh101" type="veh_passenger" depart="574.04" departLane="best" from="358318632" to="508197004"/>
    <trip id="veh102" type="veh_passenger" depart="579.72" departLane="best" from="764332432#0" to="36882311#1"/>
    <trip id="veh103" type="veh_passenger" depart="585.41" departLane="best" from="338941361#1" to="52032727"/>
    <trip id="veh104" type="veh_passenger" depart="591.09" departLane="best" from="1054230460" to="36882311#1"/>
    <trip id="veh105" type="veh_passenger" depart="596.78" departLane="best" from="234946738#1" to="638928391"/>
    <trip id="veh106" type="veh_passenger" depart="602.46" departLane="best" from="1109946346" to="764332431"/>
    <trip id="veh107" type="veh_passenger" depart="608.14" departLane="best" departSpeed="max" from="107215088" to="-112657837#0"/>
    <trip id="veh108" type="veh_passenger" depart="613.83" departLane="best" from="1109946345" to="36882310#2-AddedOnRampEdge"/>
    <trip id="veh109" type="veh_passenger" depart="619.51" departLane="best" departSpeed="max" from="1148406432#0" to="1106310175"/>
    <trip id="veh110" type="veh_passenger" depart="625.19" departLane="best" from="52063523#1" to="-1182221971"/>
    <trip id="veh111" type="veh_passenger" depart="630.88" departLane="best" from="362206700#2" to="36907507#0"/>
    <trip id="veh112" type="veh_passenger" depart="636.56" departLane="best" from="154340361#1" to="36882311#1"/>
    <trip id="veh113" type="veh_passenger" depart="642.24" departLane="best" departSpeed="max" from="251495490" to="338941361#3"/>
    <trip id="veh114" type="veh_passenger" depart="647.93" departLane="best" departSpeed="max" from="111867003" to="508197004"/>
    <trip id="veh115" type="veh_passenger" depart="653.61" departLane="best" departSpeed="max" from="1148406432#0" to="358318632-AddedOffRampEdge"/>
    <trip id="veh117" type="veh_passenger" depart="664.98" departLane="best" departSpeed="max" from="150785560" to="52032727"/>
    <trip id="veh118" type="veh_passenger" depart="670.66" departLane="best" departSpeed="max" from="107215088" to="363452629#0"/>
    <trip id="veh119" type="veh_passenger" depart="676.35" departLane="best" departSpeed="max" from="107215088" to="553253480"/>
    <trip id="veh120" type="veh_passenger" depart="682.03" departLane="best" from="1148718165" to="763048421#0"/>
    <trip id="veh122" type="veh_passenger" depart="693.40" departLane="best" departSpeed="max" from="154340361#0" to="1109946344"/>
    <trip id="veh123" type="veh_passenger" depart="699.08" departLane="best" from="-363449251" to="988901293#0"/>
    <trip id="veh124" type="veh_passenger" depart="704.76" departLane="best" from="36882311#1" to="1136611795"/>
    <trip id="veh125" type="veh_passenger" depart="710.45" departLane="best" departSpeed="max" from="503401205" to="152051153"/>
    <trip id="veh126" type="veh_passenger" depart="716.13" departLane="best" from="36882313" to="763048421#1"/>
    <trip id="veh127" type="veh_passenger" depart="721.81" departLane="best" from="1109946344" to="1106310175"/>
    <trip id="veh128" type="veh_passenger" depart="727.50" departLane="best" from="107215088-AddedOffRampEdge" to="36882310#2-AddedOnRampEdge"/>
    <trip id="veh129" type="veh_passenger" depart="733.18" departLane="best" from="1064628344" to="36907507#0"/>
    <trip id="veh130" type="veh_passenger" depart="738.87" departLane="best" departSpeed="max" from="38540557#0" to="1148155464"/>
    <trip id="veh131" type="veh_passenger" depart="744.55" departLane="best" from="36882310#2-AddedOnRampEdge" to="1205171802#1"/>
    <trip id="veh132" type="veh_passenger" depart="750.23" departLane="best" from="23076955" to="730432812"/>
    <trip id="veh133" type="veh_passenger" depart="755.92" departLane="best" from="508197004" to="1091198028"/>
    <trip id="veh134" type="veh_passenger" depart="761.60" departLane="best" from="-112657837#1" to="359476589"/>
    <trip id="veh135" type="veh_passenger" depart="767.28" departLane="best" from="36882311#0" to="1205171802#0"/>
    <trip id="veh136" type="veh_passenger" depart="772.97" departLane="best" from="38684971#1" to="36882310#2-AddedOnRampEdge"/>
    <trip id="veh137" type="veh_passenger" depart="778.65" departLane="best" from="991536562#0" to="-1182221971"/>
    <trip id="veh138" type="veh_passenger" depart="784.33" departLane="best" departSpeed="max" from="107215088" to="730432812"/>
    <trip id="veh139" type="veh_passenger" depart="790.02" departLane="best" from="553253466" to="36882310#2"/>
    <trip id="veh140" type="veh_passenger" depart="795.70" departLane="best" departSpeed="max" from="503401205" to="36882311#1"/>
    <trip id="veh141" type="veh_passenger" depart="801.38" departLane="best" from="1109946345" to="1106310175"/>
    <trip id="veh142" type="veh_passenger" depart="807.07" departLane="best" from="150785556#0-AddedOffRampEdge" to="730432812"/>
    <trip id="veh143" type="veh_passenger" depart="812.75" departLane="best" departSpeed="max" from="503401205" to="638928391"/>
    <trip id="veh144" type="veh_passenger" depart="818.44" departLane="best" from="52245576#0" to="1148155464-AddedOnRampEdge"/>
    <trip id="veh145" type="veh_passenger" depart="824.12" departLane="best" from="1148406432#1-AddedOffRampEdge" to="1106310175"/>
    <trip id="veh147" type="veh_passenger" depart="835.49" departLane="best" departSpeed="max" from="154340361#0" to="36907507#0"/>
    <trip id="veh149" type="veh_passenger" depart="846.85" departLane="best" from="508197005" to="764332432#2"/>
    <trip id="veh150" type="veh_passenger" depart="852.54" departLane="best" departSpeed="max" from="503401205" to="730432812"/>
    <trip id="veh151" type="veh_passenger" depart="858.22" departLane="best" from="-52245576#0" to="508197005"/>
    <trip id="veh153" type="veh_passenger" depart="869.59" departLane="best" departSpeed="max" from="503401205" to="638928391"/>
    <trip id="veh154" type="veh_passenger" depart="875.27" departLane="best" departSpeed="max" from="503401205" to="1205171802#1"/>
    <trip id="veh156" type="veh_passenger" depart="886.64" departLane="best" from="52032471" to="638928391"/>
    <trip id="veh157" type="veh_passenger" depart="892.32" departLane="best" from="1148155464" to="638928391"/>
    <trip id="veh158" type="veh_passenger" depart="898.01" departLane="best" departSpeed="max" from="23076927" to="152051153"/>
    <trip id="veh159" type="veh_passenger" depart="903.69" departLane="best" from="-52245576#0" to="1136611795"/>
    <trip id="veh160" type="veh_passenger" depart="909.37" departLane="best" departSpeed="max" from="150785560" to="638928391"/>
    <trip id="veh161" type="veh_passenger" depart="915.06" departLane="best" from="764332432#0" to="150785556#0-AddedOffRampEdge"/>
    <trip id="veh162" type="veh_passenger" depart="920.74" departLane="best" from="36882311#0-AddedOnRampEdge" to="358318632-AddedOffRampEdge"/>
    <trip id="veh163" type="veh_passenger" depart="926.42" departLane="best" from="764332432#2" to="36851759"/>
    <trip id="veh165" type="veh_passenger" depart="937.79" departLane="best" from="764332432#0" to="1109946346"/>
    <trip id="veh166" type="veh_passenger" depart="943.47" departLane="best" from="764332431" to="1205171802#1"/>
    <trip id="veh167" type="veh_passenger" depart="949.16" departLane="best" from="1091198030" to="362206701#2"/>
    <trip id="veh169" type="veh_passenger" depart="960.52" departLane="best" from="362900184" to="36851759"/>
    <trip id="veh170" type="veh_passenger" depart="966.21" departLane="best" departSpeed="max" from="154340361#0" to="36882311#1"/>
    <trip id="veh172" type="veh_passenger" depart="977.58" departLane="best" from="-112657837#0" to="760700372"/>
    <trip id="veh173" type="veh_passenger" depart="983.26" departLane="best" from="763048421#1" to="508197004-AddedOffRampEdge"/>
    <trip id="veh174" type="veh_passenger" depart="988.94" departLane="best" from="38684971#1" to="399001079"/>
    <trip id="veh175" type="veh_passenger" depart="994.63" departLane="best" departSpeed="max" from="154340361#0" to="1064628344"/>
    <trip id="veh176" type="veh_passenger" depart="1000.31" departLane="best" from="36882313" to="160558221#1"/>
    <trip id="veh177" type="veh_passenger" depart="1005.99" departLane="best" from="150785556#1" to="638928391"/>
    <trip id="veh178" type="veh_passenger" depart="1011.68" departLane="best" departSpeed="max" from="38540557#0" to="152051153"/>
    <trip id="veh179" type="veh_passenger" depart="1017.36" departLane="best" from="150785556#1" to="359476587"/>
    <trip id="veh180" type="veh_passenger" depart="1023.04" departLane="best" departSpeed="max" from="154340361#0" to="150894905"/>
    <trip id="veh181" type="veh_passenger" depart="1028.73" departLane="best" from="1109911787" to="362206700#0"/>
    <trip id="veh183" type="veh_passenger" depart="1040.09" departLane="best" from="-548524980#1" to="36907507#0"/>
    <trip id="veh184" type="veh_passenger" depart="1045.78" departLane="best" from="150785556#0-AddedOffRampEdge" to="36882310#2-AddedOnRampEdge"/>
    <trip id="veh185" type="veh_passenger" depart="1051.46" departLane="best" from="-112657837#0" to="150785556#1"/>
    <trip id="veh186" type="veh_passenger" depart="1057.15" departLane="best" departSpeed="max" from="23076927" to="36882311#1"/>
    <trip id="veh187" type="veh_passenger" depart="1062.83" departLane="best" from="36882311#1" to="363452629#0"/>
    <trip id="veh188" type="veh_passenger" depart="1068.51" departLane="best" departSpeed="max" from="23076927" to="553253480"/>
    <trip id="veh189" type="veh_passenger" depart="1074.20" departLane="best" departSpeed="max" from="23076927" to="730432812"/>
    <trip id="veh190" type="veh_passenger" depart="1079.88" departLane="best" from="503401204" to="1109946346"/>
    <trip id="veh191" type="veh_passenger" depart="1085.56" departLane="best" departSpeed="max" from="107215088" to="36851759"/>
    <trip id="veh192" type="veh_passenger" depart="1091.25" departLane="best" from="36882310#2-AddedOnRampEdge" to="160558221#1"/>
    <trip id="veh193" type="veh_passenger" depart="1096.93" departLane="best" departSpeed="max" from="503401205" to="52032727"/>
    <trip id="veh195" type="veh_passenger" depart="1108.30" departLane="best" departSpeed="max" from="111867003" to="-38542534"/>
    <trip id="veh196" type="veh_passenger" depart="1113.98" departLane="best" departSpeed="max" from="1148406432#0" to="363452629#0"/>
    <trip id="veh197" type="veh_passenger" depart="1119.66" departLane="best" from="508197004" to="107215083"/>
    <trip id="veh198" type="veh_passenger" depart="1125.35" departLane="best" from="154340361#1" to="36907507#0"/>
    <trip id="veh199" type="veh_passenger" depart="1131.03" departLane="best" departSpeed="max" from="111867003" to="403473952#1"/>
    <trip id="veh200" type="veh_passenger" depart="1136.72" departLane="best" from="234946738#0-AddedOnRampEdge" to="1182221970"/>
    <trip id="veh201" type="veh_passenger" depart="1142.40" departLane="best" from="36882311#1" to="112657837#1"/>
    <trip id="veh202" type="veh_passenger" depart="1148.08" departLane="best" departSpeed="max" from="391160974" to="359476589"/>
    <trip id="veh203" type="veh_passenger" depart="1153.77" departLane="best" from="107215088-AddedOffRampEdge" to="362206700#2"/>
    <trip id="veh204" type="veh_passenger" depart="1159.45" departLane="best" departSpeed="max" from="1110178941" to="764332431"/>
    <trip id="veh205" type="veh_passenger" depart="1165.13" departLane="best" from="1148406432#1" to="638928391"/>
    <trip id="veh207" type="veh_passenger" depart="1176.50" departLane="best" from="36882313" to="988901293#0"/>
    <trip id="veh208" type="veh_passenger" depart="1182.18" departLane="best" from="1109946345" to="764332430"/>
    <trip id="veh209" type="veh_passenger" depart="1187.87" departLane="best" from="52063523#1" to="36907507#0"/>
    <trip id="veh210" type="veh_passenger" depart="1193.55" departLane="best" departSpeed="max" from="38540557#0" to="363477541#1"/>
    <trip id="veh211" type="veh_passenger" depart="1199.23" departLane="best" departSpeed="max" from="503401205" to="36882310#2-AddedOnRampEdge"/>
    <trip id="veh212" type="veh_passenger" depart="1204.92" departLane="best" from="52063523#1" to="36882310#1"/>
    <trip id="veh213" type="veh_passenger" depart="1210.60" departLane="best" departSpeed="max" from="23076927" to="1205171802#0"/>
    <trip id="veh214" type="veh_passenger" depart="1216.29" departLane="best" from="1148406432#1" to="369295564#1"/>
    <trip id="veh215" type="veh_passenger" depart="1221.97" departLane="best" from="399001081" to="36851759"/>
    <trip id="veh216" type="veh_passenger" depart="1227.65" departLane="best" from="36882310#2-AddedOnRampEdge" to="150785556#0"/>
    <trip id="veh217" type="veh_passenger" depart="1233.34" departLane="best" departSpeed="max" from="107215088" to="150785556#1"/>
    <trip id="veh218" type="veh_passenger" depart="1239.02" departLane="best" from="1167355003" to="160558221#1"/>
    <trip id="veh219" type="veh_passenger" depart="1244.70" departLane="best" from="763048421#1" to="1109911786"/>
    <trip id="veh220" type="veh_passenger" depart="1250.39" departLane="best" from="369295564#1" to="1054230460"/>
    <trip id="veh221" type="veh_passenger" depart="1256.07" departLane="best" departSpeed="max" from="154340361#0" to="36882310#1"/>
    <trip id="veh222" type="veh_passenger" depart="1261.75" departLane="best" from="154340361#1" to="1148155464-AddedOnRampEdge"/>
    <trip id="veh223" type="veh_passenger" depart="1267.44" departLane="best" from="154340361#1" to="730432812"/>
    <trip id="veh224" type="veh_passenger" depart="1273.12" departLane="best" from="362206700#0" to="403473952#1"/>
    <trip id="veh225" type="veh_passenger" depart="1278.80" departLane="best" from="508197004-AddedOffRampEdge" to="359476589"/>
    <trip id="veh226" type="veh_passenger" depart="1284.49" departLane="best" departSpeed="max" from="154340361#0" to="112657837#1"/>
    <trip id="veh227" type="veh_passenger" depart="1290.17" departLane="best" departSpeed="max" from="154340361#0" to="52032727"/>
    <trip id="veh228" type="veh_passenger" depart="1295.86" departLane="best" from="508197004-AddedOffRampEdge" to="764332430"/>
    <trip id="veh229" type="veh_passenger" depart="1301.54" departLane="best" from="154340361#1" to="52032727"/>
    <trip id="veh230" type="veh_passenger" depart="1307.22" departLane="best" from="338941361#1" to="36907507#0"/>
    <trip id="veh232" type="veh_passenger" depart="1318.59" departLane="best" departSpeed="max" from="23076927" to="548524980#1"/>
    <trip id="veh233" type="veh_passenger" depart="1324.27" departLane="best" from="152051153" to="399001082"/>
    <trip id="veh234" type="veh_passenger" depart="1329.96" departLane="best" departSpeed="max" from="154340361#0" to="362206700#2"/>
    <trip id="veh235" type="veh_passenger" depart="1335.64" departLane="best" departSpeed="max" from="23076927" to="1106310175"/>
    <trip id="veh236" type="veh_passenger" depart="1341.32" departLane="best" from="36882310#1" to="52245576#0"/>
    <trip id="veh237" type="veh_passenger" depart="1347.01" departLane="best" departSpeed="max" from="154340361#0" to="36882311#0-AddedOnRampEdge"/>
    <trip id="veh238" type="veh_passenger" depart="1352.69" departLane="best" from="-548524980#1" to="369295564#1"/>
    <trip id="veh239" type="veh_passenger" depart="1358.37" departLane="best" from="1109946344" to="363452629#0"/>
    <trip id="veh240" type="veh_passenger" depart="1364.06" departLane="best" from="1054230460" to="338941361#3"/>
    <trip id="veh241" type="veh_passenger" depart="1369.74" departLane="best" from="-112657837#1" to="160558221#1"/>
    <trip id="veh242" type="veh_passenger" depart="1375.43" departLane="best" departSpeed="max" from="391160974" to="338941361#3"/>
    <trip id="veh243" type="veh_passenger" depart="1381.11" departLane="best" departSpeed="max" from="391160974" to="638928391"/>
    <trip id="veh245" type="veh_passenger" depart="1392.48" departLane="best" from="991536562#0" to="234946738#0-AddedOnRampEdge"/>
    <trip id="veh246" type="veh_passenger" depart="1398.16" departLane="best" from="36882311#1" to="553253466"/>
    <trip id="veh247" type="veh_passenger" depart="1403.84" departLane="best" from="36882311#1" to="52032727"/>